tests/data/power_flow/floating-ground-edge-case/non-floating-ground-no-error/delta-wye_n/asym_output.json
{
  "version": "1.0",
  "type": "asym_output",
  "is_batch": false,
  "attributes": {},
  "data": {
    "node": [
      {"id": 1, "energized": 1, "u_pu": [0.99999999999566591, 0.99999999998914324, 0.99999999998924516], "u": [5773.5026918712347, 5773.5026918335761, 5773.5026918341646], "u_angle": [7.4915929693360324e-14, -2.0943951023967693, 2.0943951023970944], "p": [1003.937292662088, 3401.1846204506114, 1615.948356796991], "q": [1039.1755421521718, 1716.5374268727244, 3453.9335695411701]},
      {"id": 2, "energized": 1, "u_pu": [0.99665033518158141, 0.99665056845676936, 0.98657290535610098], "u": [57.541633930501675, 57.54164739865093, 56.95981324825361], "u_angle": [-0.52629268653201255, -2.620688080165293, 1.559910231031256], "p": [-999.99999999996146, -1000.0000000000449, -4000.0000000000387], "q": [-999.99999999998295, -999.99999999997976, -4000.0000000000296]}
    ],
    "transformer": [
      {"id": 4, "energized": 1, "loading": 0.090679706380342645, "p_from": [1003.937292662088, 3401.1846204506114, 1615.948356796991], "q_from": [1039.1755421521718, 1716.5374268727244, 3453.9335695411701], "i_from": [0.25026641175094039, 0.65987629660171387, 0.6604758783245096], "s_from": [1444.913801929009, 3809.7975747071659, 3813.2592613980901], "p_to": [-999.99999999996146, -1000.0000000000449, -4000.0000000000387], "q_to": [-999.99999999998295, -999.99999999997976, -4000.0000000000296], "i_to": [24.577222886669006, 24.577217134146018, 99.313075779191877], "s_to": [1414.2135623730558, 1414.2135623731126, 5656.8542494924277]}
    ],
    "source": [
      {"id": 3, "energized": 1, "p": [1003.937292662088, 3401.1846204506114, 1615.9483567969912], "q": [1039.1755421521718, 1716.5374268727246, 3453.9335695411701], "i": [0.25026641175094039, 0.65987629660171399, 0.6604758783245096], "s": [1444.913801929009, 3809.7975747071659, 3813.2592613980901], "pf": [0.69480773961865239, 0.89274680708253584, 0.42377091249875343]}
    ],
    "asym_load": [
      {"id": 21, "energized": 1, "p": [1000, 1000, 4000], "q": [1000, 1000, 4000], "i": [24.577222886669688, 24.577217134145712, 99.313075779191038], "s": [1414.2135623730949, 1414.2135623730949, 5656.8542494923795], "pf": [0.70710678118654757, 0.70710678118654757, 0.70710678118654757]}
    ]
  }
}